VERS 160720 18 100027
MODE SEQ
NAME Doublet
UNIT MM X W X CM MR CPMM
ENPD 2.50E+01
FTYP 0 0 3 3 0 0 0
XFLN 0 0 0
YFLN 0.0 0.7 1.0
FWGN 1.0 1.0 1.0
WAVM 1 4.86100E-01 1
WAVM 2 5.87600E-01 1
WAVM 3 6.56300E-01 1
PWAV 2
SURF 0
  TYPE STANDARD
  CURV 0.0 0 0 0 0 ""
  DISZ INFINITY
  DIAM 0 0 0 0 1 ""
SURF 1
  TYPE STANDARD
  CURV 1.23500E-02 0 0 0 0 ""
  DISZ 6.0
  GLAS BK7 0 0 1.51680 64.17 0 0 0 0 0 0
  DIAM 1.25E+01 0 0 0 1 ""
SURF 2
  TYPE STANDARD
  CURV -9.70000E-03 0 0 0 0 ""
  DISZ 2.0
  GLAS F2 0 0 1.62004 36.35 0 0 0 0 0 0
  DIAM 1.25E+01 0 0 0 1 ""
SURF 3
  TYPE STANDARD
  CURV -5.46000E-03 0 0 0 0 ""
  DISZ 9.60000E+01
  DIAM 1.25E+01 0 0 0 1 ""
SURF 4
  TYPE STANDARD
  CURV 0.0 0 0 0 0 ""
  DISZ 0
  DIAM 5.0 0 0 0 1 ""
